_symmetry_space_group_name_H-M  'P1
_symmetry_Int_Tables_number     1
_symmetry_cell_setting          triclinic

_cell_length_a                  6.398
_cell_length_b                  6.391
_cell_length_c                  11.04
_cell_angle_alpha               90
_cell_angle_beta                90
_cell_angle_gamma               109.89

loop_
  _atom_site_label
  _atom_site_type_symbol
  _atom_site_fract_x
  _atom_site_fract_y
  _atom_site_fract_z
  _atom_site_U_iso_or_equiv
  _atom_site_adp_type
  _atom_site_occupancy
 Sc1_A1 Sc3+    0.000000    0.000000    0.000000    2.000000 Uiso  1.0000
 Cl1_A1 Cl1-    0.242100    0.768700    0.000000    2.000000 Uiso  1.0000
 Cl2_A1 Cl1-    0.757900    0.231300    0.000000    2.000000 Uiso  1.0000
 Cl3_A1 Cl1-    0.238700    0.237100    0.160900    2.000000 Uiso  1.0000
 Cl4_A1 Cl1-    0.761300    0.762900    0.160900    2.000000 Uiso  1.0000
 Cl5_A1 Cl1-    0.238700    0.237100   -0.160900    2.000000 Uiso  1.0000
 Cl6_A1 Cl1-    0.761300    0.762900   -0.160900    2.000000 Uiso  1.0000
 Li3_A1 Li+    0.500000    0.500000    0.000000    2.000000 Uiso  0.2700
 Li1_B1 Li+    0.500000    0.000000    0.169000    2.000000 Uiso  1.0000
 Li2_B1 Li+    0.000000    0.500000    0.169000    2.000000 Uiso  0.3650
 Li1_B2 Li+    0.000000    0.000000    0.331000    2.000000 Uiso  1.0000
 Li2_B2 Li+    0.500000    0.500000    0.331000    2.000000 Uiso  0.3650
 Sc1_A2 Sc3+    0.500000    0.000000    0.500000    2.000000 Uiso  1.0000
 Cl1_A2 Cl1-    0.742100    0.768700    0.500000    2.000000 Uiso  1.0000
 Cl2_A2 Cl1-    0.257900    0.231300    0.500000    2.000000 Uiso  1.0000
 Cl3_A2 Cl1-    0.738700    0.237100    0.660900    2.000000 Uiso  1.0000
 Cl4_A2 Cl1-    0.261300    0.762900    0.660900    2.000000 Uiso  1.0000
 Cl5_A2 Cl1-    0.738700    0.237100    0.339100    2.000000 Uiso  1.0000
 Cl6_A2 Cl1-    0.261300    0.762900    0.339100    2.000000 Uiso  1.0000
 Li3_A2 Li+    0.000000    0.500000    0.500000    2.000000 Uiso  0.2700
 Li1_B3 Li+    0.000000    0.000000    0.669000    2.000000 Uiso  1.0000
 Li2_B3 Li+    0.500000    0.500000    0.669000    2.000000 Uiso  0.3650
 Li1_B4 Li+    0.500000    0.000000    0.831000    2.000000 Uiso  1.0000
 Li2_B4 Li+    0.000000    0.500000    0.831000    2.000000 Uiso  0.3650
