_symmetry_space_group_name_H-M  'P1
_symmetry_Int_Tables_number     1
_symmetry_cell_setting          triclinic

_cell_length_a                  6.391
_cell_length_b                  11.04
_cell_length_c                  6.398
_cell_angle_alpha               90
_cell_angle_beta                109.89
_cell_angle_gamma               90

loop_
  _atom_site_label
  _atom_site_type_symbol
  _atom_site_fract_x
  _atom_site_fract_y
  _atom_site_fract_z
  _atom_site_U_iso_or_equiv
  _atom_site_adp_type
  _atom_site_occupancy
 Sc1_A Sc3+    0.000000    0.000000    0.000000    2.000000 Uiso  1.0000
 Cl1_A Cl1-    0.231300    0.000000   -0.242100    2.000000 Uiso  1.0000
 Cl2_A Cl1-   -0.231300    0.000000    0.242100    2.000000 Uiso  1.0000
 Cl3_A Cl1-   -0.237100   -0.160900   -0.238700    2.000000 Uiso  1.0000
 Cl4_A Cl1-   -0.237100    0.160900   -0.238700    2.000000 Uiso  1.0000
 Cl5_A Cl1-    0.237100   -0.160900    0.238700    2.000000 Uiso  1.0000
 Cl6_A Cl1-    0.237100    0.160900    0.238700    2.000000 Uiso  1.0000
 Li1a_A Li+    0.000000    0.334700    0.000000    2.000000 Uiso  1.0000
 Li1b_A Li+    0.000000    0.665300    0.000000    2.000000 Uiso  1.0000
 Li2a_A Li+    0.500000    0.169000    0.000000    2.000000 Uiso  0.3650
 Li2b_A Li+    0.500000    0.831000    0.000000    2.000000 Uiso  0.3650
 Li3_A Li+    0.500000    0.500000    0.000000    2.000000 Uiso  0.2700
 Sc1_A Sc3+    0.000000    0.000000    0.000000    2.000000 Uiso  1.0000
 Cl1_A Cl1-    0.231300    0.000000   -0.242100    2.000000 Uiso  1.0000
 Cl2_A Cl1-   -0.231300    0.000000    0.242100    2.000000 Uiso  1.0000
 Cl3_A Cl1-   -0.237100   -0.160900   -0.238700    2.000000 Uiso  1.0000
 Cl4_A Cl1-   -0.237100    0.160900   -0.238700    2.000000 Uiso  1.0000
 Cl5_A Cl1-    0.237100   -0.160900    0.238700    2.000000 Uiso  1.0000
 Cl6_A Cl1-    0.237100    0.160900    0.238700    2.000000 Uiso  1.0000
 Li1a_A Li+    0.000000    0.334700    0.000000    2.000000 Uiso  1.0000
 Li1b_A Li+    0.000000    0.665300    0.000000    2.000000 Uiso  1.0000
 Li2a_A Li+    0.500000    0.169000    0.000000    2.000000 Uiso  0.3650
 Li2b_A Li+    0.500000    0.831000    0.000000    2.000000 Uiso  0.3650
 Li3_A Li+    0.500000    0.500000    0.000000    2.000000 Uiso  0.2700
