_symmetry_space_group_name_H-M  P1
_symmetry_Int_Tables_number     1
_symmetry_cell_setting          triclinic

_cell_length_a                  1
_cell_length_b                  1
_cell_length_c                  10
_cell_angle_alpha               90
_cell_angle_beta                90
_cell_angle_gamma               90

loop_
  _atom_site_label
  _atom_site_type_symbol
  _atom_site_fract_x
  _atom_site_fract_y
  _atom_site_fract_z
  _atom_site_U_iso_or_equiv
  _atom_site_adp_type
  _atom_site_occupancy
 Sc1_A_n1 Sc3+    0.000000    0.000000    0.000000    2.000000 Uiso  1.0000
 Sc2_A_n1 Sc3+    0.500000    0.500000    0.000000    2.000000 Uiso  1.0000
 Sc1_A_n2 Sc3+    0.000000    0.000000    0.100000    2.000000 Uiso  1.0000
 Sc2_A_n2 Sc3+    0.500000    0.500000    0.100000    2.000000 Uiso  1.0000
 Sc1_A_n3 Sc3+    0.000000    0.000000    0.200000    2.000000 Uiso  1.0000
 Sc2_A_n3 Sc3+    0.500000    0.500000    0.200000    2.000000 Uiso  1.0000
 Sc1_A_n4 Sc3+    0.000000    0.000000    0.300000    2.000000 Uiso  1.0000
 Sc2_A_n4 Sc3+    0.500000    0.500000    0.300000    2.000000 Uiso  1.0000
 Sc1_A_n5 Sc3+    0.000000    0.000000    0.400000    2.000000 Uiso  1.0000
 Sc2_A_n5 Sc3+    0.500000    0.500000    0.400000    2.000000 Uiso  1.0000
 Sc1_A_n6 Sc3+    0.000000    0.000000    0.500000    2.000000 Uiso  1.0000
 Sc2_A_n6 Sc3+    0.500000    0.500000    0.500000    2.000000 Uiso  1.0000
 Sc1_A_n7 Sc3+    0.000000    0.000000    0.600000    2.000000 Uiso  1.0000
 Sc2_A_n7 Sc3+    0.500000    0.500000    0.600000    2.000000 Uiso  1.0000
 Sc1_A_n8 Sc3+    0.000000    0.000000    0.700000    2.000000 Uiso  1.0000
 Sc2_A_n8 Sc3+    0.500000    0.500000    0.700000    2.000000 Uiso  1.0000
 Sc1_A_n9 Sc3+    0.000000    0.000000    0.800000    2.000000 Uiso  1.0000
 Sc2_A_n9 Sc3+    0.500000    0.500000    0.800000    2.000000 Uiso  1.0000
 Sc1_A_n10 Sc3+    0.000000    0.000000    0.900000    2.000000 Uiso  1.0000
 Sc2_A_n10 Sc3+    0.500000    0.500000    0.900000    2.000000 Uiso  1.0000
 Li1_B_n1 Li+    0.500000    0.000000    0.050000    2.000000 Uiso  1.0000
 Li2_B_n1 Li+    0.000000    0.500000    0.050000    2.000000 Uiso  1.0000
 Li1_B_n2 Li+    0.500000    0.000000    0.150000    2.000000 Uiso  1.0000
 Li2_B_n2 Li+    0.000000    0.500000    0.150000    2.000000 Uiso  1.0000
 Li1_B_n3 Li+    0.500000    0.000000    0.250000    2.000000 Uiso  1.0000
 Li2_B_n3 Li+    0.000000    0.500000    0.250000    2.000000 Uiso  1.0000
 Li1_B_n4 Li+    0.500000    0.000000    0.350000    2.000000 Uiso  1.0000
 Li2_B_n4 Li+    0.000000    0.500000    0.350000    2.000000 Uiso  1.0000
 Li1_B_n5 Li+    0.500000    0.000000    0.450000    2.000000 Uiso  1.0000
 Li2_B_n5 Li+    0.000000    0.500000    0.450000    2.000000 Uiso  1.0000
 Li1_B_n6_fault Li+    0.500000    0.250000    0.550000    2.000000 Uiso  1.0000
 Li2_B_n6_fault Li+    0.000000    0.750000    0.550000    2.000000 Uiso  1.0000
 Li1_B_n7 Li+    0.500000    0.000000    0.650000    2.000000 Uiso  1.0000
 Li2_B_n7 Li+    0.000000    0.500000    0.650000    2.000000 Uiso  1.0000
 Li1_B_n8 Li+    0.500000    0.000000    0.750000    2.000000 Uiso  1.0000
 Li2_B_n8 Li+    0.000000    0.500000    0.750000    2.000000 Uiso  1.0000
 Li1_B_n9_fault Li+    0.500000    0.250000    0.850000    2.000000 Uiso  1.0000
 Li2_B_n9_fault Li+    0.000000    0.750000    0.850000    2.000000 Uiso  1.0000
 Li1_B_n10 Li+    0.500000    0.000000    0.950000    2.000000 Uiso  1.0000
 Li2_B_n10 Li+    0.000000    0.500000    0.950000    2.000000 Uiso  1.0000
